#

@<TRIPOS>MOLECULE
ZINC12428433
 32 33 0 0 0
SMALL
USER_CHARGES

@<TRIPOS>ATOM
      1 C1         -0.0169    1.3954    0.0097 C.ar      1 LIG        -0.0904
      2 C2          1.1670    2.0999    0.0022 C.ar      1 LIG        -0.1322
      3 C3          2.3804    1.4253   -0.0135 C.ar      1 LIG         0.0958
      4 C4          2.4078    0.0306   -0.0212 C.ar      1 LIG         0.0793
      5 C5          1.2266   -0.6835   -0.0138 C.ar      1 LIG        -0.1038
      6 C6          0.0021   -0.0041    0.0020 C.ar      1 LIG        -0.0735
      7 C7         -1.2589   -0.7581    0.0105 C.2       1 LIG        -0.0126
      8 C8         -2.4394   -0.1004    0.0257 C.2       1 LIG        -0.2314
      9 C9         -3.6941   -0.8507    0.0342 C.2       1 LIG         0.4226
     10 O1         -3.6755   -2.0687    0.0275 O.2       1 LIG        -0.4421
     11 C10        -4.9819   -0.1332    0.0508 C.ar      1 LIG        -0.2013
     12 C11        -5.0066    1.2652    0.0527 C.ar      1 LIG        -0.0413
     13 C12        -6.2101    1.9309    0.0678 C.ar      1 LIG        -0.1682
     14 C13        -7.4056    1.2179    0.0812 C.ar      1 LIG         0.1575
     15 C14        -7.3926   -0.1691    0.0794 C.ar      1 LIG        -0.1902
     16 C15        -6.1880   -0.8506    0.0589 C.ar      1 LIG         0.1855
     17 O2         -6.1733   -2.2072    0.0519 O.3       1 LIG        -0.4786
     18 O3         -8.5888    1.8827    0.0964 O.3       1 LIG        -0.4961
     19 O4          3.5988   -0.6258   -0.0366 O.3       1 LIG        -0.4857
     20 O5          3.5442    2.1254   -0.0217 O.3       1 LIG        -0.4865
     21 H1         -0.9592    1.9228    0.0261 H         1 LIG         0.1364
     22 H2          1.1512    3.1797    0.0081 H         1 LIG         0.1394
     23 H3          1.2466   -1.7633   -0.0205 H         1 LIG         0.1407
     24 H4         -1.2424   -1.8380    0.0045 H         1 LIG         0.1381
     25 H5         -2.4560    0.9794    0.0317 H         1 LIG         0.1347
     26 H6         -4.0812    1.8220    0.0427 H         1 LIG         0.1409
     27 H7         -6.2276    3.0108    0.0696 H         1 LIG         0.1396
     28 H8         -8.3229   -0.7176    0.0899 H         1 LIG         0.1426
     29 H9         -6.1604   -2.6050    0.9333 H         1 LIG         0.3992
     30 H10        -8.9423    2.0766   -0.7825 H         1 LIG         0.4001
     31 H11         3.9520   -0.8204    0.8423 H         1 LIG         0.3901
     32 H12         3.8902    2.3237    0.8592 H         1 LIG         0.3914
@<TRIPOS>BOND
     1    1    6 2  
     2    1    2 1  
     3    1   21 1  
     4    2    3 2  
     5    2   22 1  
     6    3    4 1  
     7    3   20 1  
     8    4    5 2  
     9    4   19 1  
    10    5    6 1  
    11    5   23 1  
    12    6    7 1  
    13    7    8 2  
    14    7   24 1  
    15    8    9 1  
    16    8   25 1  
    17    9   10 2  
    18    9   11 1  
    19   11   16 2  
    20   11   12 1  
    21   12   13 2  
    22   12   26 1  
    23   13   14 1  
    24   13   27 1  
    25   14   15 2  
    26   14   18 1  
    27   15   16 1  
    28   15   28 1  
    29   16   17 1  
    30   17   29 1  
    31   18   30 1  
    32   19   31 1  
    33   20   32 1  
